* NGSPICE file created from fullldom.ext - technology: sky130A

.subckt fullldom biasldo biasbgr trim[0] trim[2] trim[4] trim[6] trim[8] trim[10]
+ trim[12] trim[14] trim[15] trim[13] trim[11] trim[9] trim[7] trim[5] trim[3] trim[1]
+ out vdd vss
X0 vss.t210 vss.t207 vss.t209 vss.t208 sky130_fd_pr__nfet_g5v0d10v5 ad=0p pd=0u as=0p ps=0u w=1e+06u l=1e+06u
X1 vss.t84 bandgapmd_0.otam_1.nmosbn1m_0.vbn1 bandgapmd_0.otam_1.nmosrm_0.outn.t15 vss.t83 sky130_fd_pr__nfet_g5v0d10v5 ad=0p pd=0u as=0p ps=0u w=1e+06u l=1e+06u
X2 ldomc_0.otaldom_0.pcsm_0.diff ldomc_0.otaldom_0.pcsm_0.diff ldomc_0.otaldom_0.pcsm_0.diff vdd.t324 sky130_fd_pr__pfet_g5v0d10v5 ad=2.9e+13p pd=2.145e+08u as=0p ps=0u w=4e+06u l=1e+06u
X3 vdd.t98 ldomc_0.otaldom_0.pmosrm_0.out out.t65 vdd.t39 sky130_fd_pr__pfet_g5v0d10v5 ad=0p pd=0u as=0p ps=0u w=5e+07u l=500000u
X4 ldomc_0.otaldom_0.pmosrm_0.out ldomc_0.otaldom_0.pcsm_0.vbn2 ldomc_0.otaldom_0.nmosrm_0.outn vss sky130_fd_pr__nfet_g5v0d10v5 ad=5.22e+12p pd=4.122e+07u as=4.64e+12p ps=3.896e+07u w=2e+06u l=4e+06u
X5 vss vss.t202 vss vss.t203 sky130_fd_pr__nfet_g5v0d10v5 ad=3.712e+13p pd=2.9776e+08u as=0p ps=0u w=1e+06u l=1e+06u
X6 out.t64 ldomc_0.otaldom_0.pmosrm_0.out vdd vdd.t36 sky130_fd_pr__pfet_g5v0d10v5 ad=0p pd=0u as=4.5066e+14p ps=3.15498e+09u w=5e+07u l=500000u
X7 ldomc_0.otaldom_0.pcascodeupm_0.o1.t7 ldomc_0.otaldom_0.pmosrm_0.bias1 ldomc_0.otaldom_0.pcascodeupm_0.vg vdd.t314 sky130_fd_pr__pfet_g5v0d10v5 ad=0p pd=0u as=5.22e+12p ps=4.122e+07u w=2e+06u l=4e+06u
X8 vdd.t240 vdd.t238 vdd.t239 vdd.t200 sky130_fd_pr__pfet_g5v0d10v5 ad=0p pd=0u as=0p ps=0u w=4e+06u l=1e+06u
X9 bandgapmd_0.otam_1.nmoslm_0.outp bandgapmd_0.otam_1.pcsm_0.vbn2 bandgapmd_0.otam_1.pcascodeupm_0.vg vss sky130_fd_pr__nfet_g5v0d10v5 ad=4.64e+12p pd=3.896e+07u as=5.22e+12p ps=4.122e+07u w=2e+06u l=4e+06u
X10 vss.t304 ldomc_0.otaldom_0.nmosbn1m_0.vbn1 ldomc_0.otaldom_0.nmosrm_0.outn vss.t303 sky130_fd_pr__nfet_g5v0d10v5 ad=0p pd=0u as=0p ps=0u w=1e+06u l=1e+06u
X11 bandgapmd_0.otam_1.nmoslm_0.outp bandgapmd_0.otam_1.nmosbn1m_0.vbn1 vss.t82 vss.t81 sky130_fd_pr__nfet_g5v0d10v5 ad=0p pd=0u as=0p ps=0u w=1e+06u l=1e+06u
X12 bandgapmd_0.otam_1.nmoslm_0.outp bandgapmd_0.otam_1.nmosbn1m_0.vbn1 vss.t80 vss.t79 sky130_fd_pr__nfet_g5v0d10v5 ad=0p pd=0u as=0p ps=0u w=1e+06u l=1e+06u
X13 ldomc_0.otaldom_0.pcsm_0.diff ldomc_0.otaldom_0.pcsm_0.diff ldomc_0.otaldom_0.pcsm_0.diff vdd.t323 sky130_fd_pr__pfet_g5v0d10v5 ad=0p pd=0u as=0p ps=0u w=4e+06u l=1e+06u
X14 ldomc_0.otaldom_0.nmosbn1m_0.vbn1 ldomc_0.otaldom_0.nmosbn1m_0.vbn1 vss.t302 vss.t301 sky130_fd_pr__nfet_g5v0d10v5 ad=4.64e+12p pd=3.722e+07u as=0p ps=0u w=1e+06u l=1e+06u
X15 out.t63 ldomc_0.otaldom_0.pmosrm_0.out vdd.t96 vdd.t39 sky130_fd_pr__pfet_g5v0d10v5 ad=0p pd=0u as=0p ps=0u w=5e+07u l=500000u
X16 bandgapmd_0.otam_1.pcsm_0.diff bandgapmd_0.otam_1.pdiffm_0.inp.t2 bandgapmd_0.otam_1.nmoslm_0.outp vdd.t344 sky130_fd_pr__pfet_g5v0d10v5 ad=2.9e+13p pd=2.145e+08u as=5.8e+12p ps=4.29e+07u w=4e+06u l=1e+06u
X17 bandgapmd_0.otam_1.nmoslm_0.outp bandgapmd_0.otam_1.nmosbn1m_0.vbn1 vss.t78 vss.t77 sky130_fd_pr__nfet_g5v0d10v5 ad=0p pd=0u as=0p ps=0u w=1e+06u l=1e+06u
X18 bandgapmd_0.otam_1.pcsm_0.diff bandgapmd_0.otam_1.pcsm_0.diff bandgapmd_0.otam_1.pcsm_0.diff vdd.t248 sky130_fd_pr__pfet_g5v0d10v5 ad=0p pd=0u as=0p ps=0u w=4e+06u l=1e+06u
X19 bandgapmd_0.otam_1.nmosrm_0.outn.t33 bandgapmd_0.otam_1.pdiffm_0.inn bandgapmd_0.otam_1.pcsm_0.diff vdd.t282 sky130_fd_pr__pfet_g5v0d10v5 ad=0p pd=0u as=0p ps=0u w=4e+06u l=1e+06u
X20 out.t66 ldomc_0.otaldom_0.pdiffm_0.inp sky130_fd_pr__cap_mim_m3_1 l=5e+06u w=5e+06u
X21 ldomc_0.otaldom_0.nmosbn1m_0.vbn1 ldomc_0.otaldom_0.nmosbn1m_0.vbn1 ldomc_0.otaldom_0.nmosbn1m_0.vbn1 vss sky130_fd_pr__nfet_g5v0d10v5 ad=0p pd=0u as=0p ps=0u w=2e+06u l=1e+06u
X22 ldomc_0.otaldom_0.pcsm_0.diff ldomc_0.otaldom_0.pcsm_0.diff ldomc_0.otaldom_0.pcsm_0.diff vdd.t322 sky130_fd_pr__pfet_g5v0d10v5 ad=0p pd=0u as=0p ps=0u w=4e+06u l=1e+06u
X23 ldomc_0.otaldom_0.pcsm_0.vbp1 ldomc_0.otaldom_0.pmosrm_0.bias1 ldomc_0.otaldom_0.pmosrm_0.bias1 vdd.t313 sky130_fd_pr__pfet_g5v0d10v5 ad=4.64e+12p pd=3.432e+07u as=8.12e+12p ps=6.006e+07u w=4e+06u l=1e+06u
X24 a_n7846_4436# bandgapmd_0.bg_stupm_0.vs2.t1 vdd.t139 vdd.t138 sky130_fd_pr__pfet_g5v0d10v5 ad=2.9e+11p pd=2.58e+06u as=0p ps=0u w=1e+06u l=1e+06u
X25 vdd ldomc_0.otaldom_0.pmosrm_0.out out.t62 vdd.t36 sky130_fd_pr__pfet_g5v0d10v5 ad=0p pd=0u as=0p ps=0u w=5e+07u l=500000u
X26 bandgapmd_0.otam_1.pcascodeupm_0.o2 bandgapmd_0.otam_1.pcascodeupm_0.vg vdd.t35 vdd.t34 sky130_fd_pr__pfet_g5v0d10v5 ad=4.64e+12p pd=3.664e+07u as=0p ps=0u w=2e+06u l=4e+06u
X27 ldomc_0.otaldom_0.pmosrm_0.out ldomc_0.otaldom_0.pcsm_0.vbn2 ldomc_0.otaldom_0.nmosrm_0.outn vss sky130_fd_pr__nfet_g5v0d10v5 ad=0p pd=0u as=0p ps=0u w=2e+06u l=4e+06u
X28 a_n24544_2674# a_n24956_4148# vss sky130_fd_pr__res_high_po w=1.41e+06u l=2.8e+06u
X29 ldomc_0.otaldom_0.nmosrm_0.outn bandgapmd_0.bg_pmosm_0.vbg.t3 ldomc_0.otaldom_0.pcsm_0.diff vdd.t283 sky130_fd_pr__pfet_g5v0d10v5 ad=5.8e+12p pd=4.29e+07u as=0p ps=0u w=4e+06u l=1e+06u
X30 bandgapmd_0.otam_1.pcsm_0.diff bandgapmd_0.otam_1.pcsm_0.vbp1 vdd.t175 vdd.t174 sky130_fd_pr__pfet_g5v0d10v5 ad=0p pd=0u as=0p ps=0u w=4e+06u l=1e+06u
X31 vdd.t93 ldomc_0.otaldom_0.pmosrm_0.out out.t61 vdd.t39 sky130_fd_pr__pfet_g5v0d10v5 ad=0p pd=0u as=0p ps=0u w=5e+07u l=500000u
X32 ldomc_0.otaldom_0.nmosbn1m_0.vbn1 ldomc_0.otaldom_0.nmosbn1m_0.vbn1 ldomc_0.otaldom_0.nmosbn1m_0.vbn1 vss sky130_fd_pr__nfet_g5v0d10v5 ad=0p pd=0u as=0p ps=0u w=2e+06u l=1e+06u
X33 ldomc_0.otaldom_0.pmosrm_0.bias1 ldomc_0.otaldom_0.pmosrm_0.bias1 ldomc_0.otaldom_0.pcsm_0.vbp1 vdd.t312 sky130_fd_pr__pfet_g5v0d10v5 ad=0p pd=0u as=0p ps=0u w=4e+06u l=1e+06u
X34 vdd.t92 ldomc_0.otaldom_0.pmosrm_0.out out.t60 vdd.t36 sky130_fd_pr__pfet_g5v0d10v5 ad=0p pd=0u as=0p ps=0u w=5e+07u l=500000u
X35 bandgapmd_0.otam_1.pmosrm_0.bias1 bandgapmd_0.otam_1.pmosrm_0.bias1 bandgapmd_0.otam_1.pcsm_0.vbp1 vdd.t272 sky130_fd_pr__pfet_g5v0d10v5 ad=8.12e+12p pd=6.006e+07u as=4.64e+12p ps=3.432e+07u w=4e+06u l=1e+06u
X36 a_8404_8048# a_8284_10248# vss sky130_fd_pr__res_xhigh_po w=350000u l=8.5e+06u
X37 vss vss.t196 vss vss sky130_fd_pr__nfet_g5v0d10v5 ad=0p pd=0u as=0p ps=0u w=5e+06u l=1e+06u
X38 a_n22428_2672# a_n22834_4148# vss sky130_fd_pr__res_high_po w=1.41e+06u l=2.8e+06u
X39 a_n24544_2674# a_n23894_4148# vss sky130_fd_pr__res_high_po w=1.41e+06u l=2.8e+06u
X40 bandgapmd_0.otam_1.pmosrm_0.out vss.t354 sky130_fd_pr__cap_mim_m3_1 l=1e+07u w=1e+07u
X41 vdd.t91 ldomc_0.otaldom_0.pmosrm_0.out out.t59 vdd.t39 sky130_fd_pr__pfet_g5v0d10v5 ad=0p pd=0u as=0p ps=0u w=5e+07u l=500000u
X42 bandgapmd_0.otam_1.nmosrm_0.outn.t32 bandgapmd_0.otam_1.pdiffm_0.inn bandgapmd_0.otam_1.pcsm_0.diff vdd.t281 sky130_fd_pr__pfet_g5v0d10v5 ad=0p pd=0u as=0p ps=0u w=4e+06u l=1e+06u
X43 ldomc_0.otaldom_0.pcascodeupm_0.vg ldomc_0.otaldom_0.pcsm_0.vbn2 ldomc_0.otaldom_0.nmoslm_0.outp vss sky130_fd_pr__nfet_g5v0d10v5 ad=5.22e+12p pd=4.122e+07u as=4.64e+12p ps=3.896e+07u w=2e+06u l=4e+06u
X44 bandgapmd_0.otam_1.pmosrm_0.out vss.t353 sky130_fd_pr__cap_mim_m3_1 l=1e+07u w=1e+07u
X45 vss vss.t198 bandgapmd_0.bg_trimmup_0.bot sky130_fd_pr__pnp_05v5_W0p68L0p68 NE=1
X46 bandgapmd_0.otam_1.nmosrm_0.outn.t31 bandgapmd_0.otam_1.pdiffm_0.inn bandgapmd_0.otam_1.pcsm_0.diff vdd.t280 sky130_fd_pr__pfet_g5v0d10v5 ad=0p pd=0u as=0p ps=0u w=4e+06u l=1e+06u
X47 vdd.t173 bandgapmd_0.otam_1.pcsm_0.vbp1 bandgapmd_0.otam_1.pcsm_0.diff vdd.t172 sky130_fd_pr__pfet_g5v0d10v5 ad=0p pd=0u as=0p ps=0u w=4e+06u l=1e+06u
X48 bandgapmd_0.otam_1.pcascodeupm_0.o1.t7 bandgapmd_0.otam_1.pcascodeupm_0.vg vdd.t33 vdd.t32 sky130_fd_pr__pfet_g5v0d10v5 ad=0p pd=0u as=0p ps=0u w=2e+06u l=4e+06u
X49 a_n22428_2672# a_n21774_4148# vss sky130_fd_pr__res_high_po w=1.41e+06u l=2.8e+06u
X50 bandgapmd_0.otam_1.pcascodeupm_0.vg bandgapmd_0.otam_1.pmosrm_0.bias1 bandgapmd_0.otam_1.pcascodeupm_0.o1.t15 vdd.t271 sky130_fd_pr__pfet_g5v0d10v5 ad=5.22e+12p pd=4.122e+07u as=0p ps=0u w=2e+06u l=4e+06u
X51 vss vss.t192 vss vss sky130_fd_pr__nfet_g5v0d10v5 ad=0p pd=0u as=0p ps=0u w=5e+06u l=1e+06u
X52 vss.t309 vss.t310 vss sky130_fd_pr__res_xhigh_po w=350000u l=8.5e+06u
X53 bandgapmd_0.otam_1.pcsm_0.diff bandgapmd_0.otam_1.pcsm_0.vbp1 vdd.t171 vdd.t170 sky130_fd_pr__pfet_g5v0d10v5 ad=0p pd=0u as=0p ps=0u w=4e+06u l=1e+06u
X54 bandgapmd_0.otam_1.pmosrm_0.out vss.t352 sky130_fd_pr__cap_mim_m3_1 l=1e+07u w=1e+07u
X55 out.t67 ldomc_0.otaldom_0.pdiffm_0.inp sky130_fd_pr__cap_mim_m3_1 l=5e+06u w=5e+06u
X56 a_8524_8048# a_9124_10248# vss sky130_fd_pr__res_xhigh_po w=350000u l=8.5e+06u
X57 ldomc_0.otaldom_0.nmosrm_0.outn bandgapmd_0.bg_pmosm_0.vbg.t4 ldomc_0.otaldom_0.pcsm_0.diff vdd.t284 sky130_fd_pr__pfet_g5v0d10v5 ad=0p pd=0u as=0p ps=0u w=4e+06u l=1e+06u
X58 ldomc_0.otaldom_0.pcascodeupm_0.o1.t15 ldomc_0.otaldom_0.pcascodeupm_0.vg vdd.t388 vdd.t387 sky130_fd_pr__pfet_g5v0d10v5 ad=0p pd=0u as=0p ps=0u w=2e+06u l=4e+06u
X59 bandgapmd_0.otam_1.pmosrm_0.out vss.t351 sky130_fd_pr__cap_mim_m3_1 l=1e+07u w=1e+07u
X60 vdd.t237 vdd.t235 vdd.t236 vdd.t200 sky130_fd_pr__pfet_g5v0d10v5 ad=0p pd=0u as=0p ps=0u w=4e+06u l=1e+06u
X61 out.t58 ldomc_0.otaldom_0.pmosrm_0.out vdd.t90 vdd.t36 sky130_fd_pr__pfet_g5v0d10v5 ad=0p pd=0u as=0p ps=0u w=5e+07u l=500000u
X62 bandgapmd_0.bg_stupm_0.vs2 vss.t221 sky130_fd_pr__cap_mim_m3_1 l=1e+07u w=1e+07u
X63 bandgapmd_0.otam_1.pmosrm_0.out vss.t350 sky130_fd_pr__cap_mim_m3_1 l=1e+07u w=1e+07u
X64 vss vss.t187 vss vss.t188 sky130_fd_pr__nfet_g5v0d10v5 ad=0p pd=0u as=0p ps=0u w=1e+06u l=1e+06u
X65 ldomc_0.otaldom_0.pcsm_0.diff ldomc_0.otaldom_0.pdiffm_0.inp ldomc_0.otaldom_0.nmoslm_0.outp vdd.t335 sky130_fd_pr__pfet_g5v0d10v5 ad=0p pd=0u as=5.8e+12p ps=4.29e+07u w=4e+06u l=1e+06u
X66 out.t57 ldomc_0.otaldom_0.pmosrm_0.out vdd.t89 vdd.t39 sky130_fd_pr__pfet_g5v0d10v5 ad=0p pd=0u as=0p ps=0u w=5e+07u l=500000u
X67 ldomc_0.otaldom_0.nmosrm_0.outn ldomc_0.otaldom_0.pcsm_0.vbn2 ldomc_0.otaldom_0.pmosrm_0.out vss sky130_fd_pr__nfet_g5v0d10v5 ad=0p pd=0u as=0p ps=0u w=2e+06u l=4e+06u
X68 bandgapmd_0.otam_1.pcsm_0.diff bandgapmd_0.otam_1.pdiffm_0.inn bandgapmd_0.otam_1.nmosrm_0.outn.t30 vdd.t279 sky130_fd_pr__pfet_g5v0d10v5 ad=0p pd=0u as=0p ps=0u w=4e+06u l=1e+06u
X69 ldomc_0.otaldom_0.pcascodeupm_0.vg ldomc_0.otaldom_0.pmosrm_0.bias1 ldomc_0.otaldom_0.pcascodeupm_0.o1.t6 vdd.t311 sky130_fd_pr__pfet_g5v0d10v5 ad=0p pd=0u as=0p ps=0u w=2e+06u l=4e+06u
X70 a_n11444_2076# bandgapmd_0.bg_pmosm_0.comp.t0 vss.t313 sky130_fd_pr__res_xhigh_po_0p69 l=1.3e+07u
X71 bandgapmd_0.otam_1.pcascodeupm_0.vg bandgapmd_0.otam_1.pcsm_0.vbn2 bandgapmd_0.otam_1.nmoslm_0.outp vss sky130_fd_pr__nfet_g5v0d10v5 ad=0p pd=0u as=0p ps=0u w=2e+06u l=4e+06u
X72 bandgapmd_0.otam_1.pmosrm_0.out bandgapmd_0.otam_1.pcsm_0.vbn2 bandgapmd_0.otam_1.nmosrm_0.outn.t23 vss sky130_fd_pr__nfet_g5v0d10v5 ad=5.51e+12p pd=4.38e+07u as=0p ps=0u w=2e+06u l=4e+06u
X73 bandgapmd_0.otam_1.pcsm_0.diff bandgapmd_0.otam_1.pdiffm_0.inn bandgapmd_0.otam_1.nmosrm_0.outn.t29 vdd.t278 sky130_fd_pr__pfet_g5v0d10v5 ad=0p pd=0u as=0p ps=0u w=4e+06u l=1e+06u
X74 vss vss.t183 vss vss sky130_fd_pr__nfet_g5v0d10v5 ad=0p pd=0u as=0p ps=0u w=5e+06u l=1e+06u
X75 bandgapmd_0.otam_1.pcsm_0.vbp1 bandgapmd_0.otam_1.pcsm_0.vbp1 vdd.t169 vdd.t168 sky130_fd_pr__pfet_g5v0d10v5 ad=0p pd=0u as=0p ps=0u w=4e+06u l=1e+06u
X76 bandgapmd_0.bg_stupm_0.vs2 vss.t220 sky130_fd_pr__cap_mim_m3_1 l=1e+07u w=1e+07u
X77 ldomc_0.otaldom_0.nmoslm_0.outp ldomc_0.otaldom_0.pdiffm_0.inp ldomc_0.otaldom_0.pcsm_0.diff vdd.t334 sky130_fd_pr__pfet_g5v0d10v5 ad=0p pd=0u as=0p ps=0u w=4e+06u l=1e+06u
X78 vss vss.t174 bandgapmd_0.bg_trimmup_0.bot sky130_fd_pr__pnp_05v5_W0p68L0p68 NE=1
X79 a_n14486_2076# a_n13784_5108# vss.t318 sky130_fd_pr__res_xhigh_po_0p69 l=1.3e+07u
X80 bandgapmd_0.otam_1.pcascodeupm_0.o2 bandgapmd_0.otam_1.pcascodeupm_0.vg vdd.t31 vdd.t30 sky130_fd_pr__pfet_g5v0d10v5 ad=0p pd=0u as=0p ps=0u w=2e+06u l=4e+06u
X81 vdd.t29 bandgapmd_0.otam_1.pcascodeupm_0.vg bandgapmd_0.otam_1.pcascodeupm_0.o2 vdd.t28 sky130_fd_pr__pfet_g5v0d10v5 ad=0p pd=0u as=0p ps=0u w=2e+06u l=4e+06u
X82 bandgapmd_0.otam_1.pcascodeupm_0.vg bandgapmd_0.otam_1.pmosrm_0.bias1 bandgapmd_0.otam_1.pcascodeupm_0.o1.t14 vdd.t270 sky130_fd_pr__pfet_g5v0d10v5 ad=0p pd=0u as=0p ps=0u w=2e+06u l=4e+06u
X83 ldomc_0.otaldom_0.pmosrm_0.out out.t21 sky130_fd_pr__cap_mim_m3_1 l=5e+06u w=5e+06u
X84 ldomc_0.otaldom_0.nmosrm_0.outn ldomc_0.otaldom_0.pcsm_0.vbn2 ldomc_0.otaldom_0.pmosrm_0.out vss sky130_fd_pr__nfet_g5v0d10v5 ad=0p pd=0u as=0p ps=0u w=2e+06u l=4e+06u
X85 ldomc_0.otaldom_0.pdiffm_0.inp a_8284_10248# vss sky130_fd_pr__res_xhigh_po w=350000u l=8.5e+06u
X86 ldomc_0.otaldom_0.pcascodeupm_0.vg ldomc_0.otaldom_0.pmosrm_0.bias1 ldomc_0.otaldom_0.pcascodeupm_0.o1.t5 vdd.t310 sky130_fd_pr__pfet_g5v0d10v5 ad=0p pd=0u as=0p ps=0u w=2e+06u l=4e+06u
X87 bandgapmd_0.bg_pmosm_0.vbg.t1 bandgapmd_0.otam_1.pmosrm_0.out vdd.t343 vdd.t200 sky130_fd_pr__pfet_g5v0d10v5 ad=0p pd=0u as=0p ps=0u w=4e+06u l=1e+06u
X88 vss.t6 biasbgr.t4 bandgapmd_0.otam_1.pmosrm_0.bias1 vss sky130_fd_pr__nfet_g5v0d10v5 ad=0p pd=0u as=1.45e+12p ps=1.058e+07u w=5e+06u l=1e+07u
X89 bandgapmd_0.otam_1.pcascodeupm_0.vg bandgapmd_0.otam_1.pcsm_0.vbn2 bandgapmd_0.otam_1.nmoslm_0.outp vss sky130_fd_pr__nfet_g5v0d10v5 ad=0p pd=0u as=0p ps=0u w=2e+06u l=4e+06u
X90 bandgapmd_0.otam_1.pcsm_0.diff bandgapmd_0.otam_1.pcsm_0.diff bandgapmd_0.otam_1.pcsm_0.diff vdd.t247 sky130_fd_pr__pfet_g5v0d10v5 ad=0p pd=0u as=0p ps=0u w=4e+06u l=1e+06u
X91 ldomc_0.otaldom_0.pmosrm_0.out out.t20 sky130_fd_pr__cap_mim_m3_1 l=5e+06u w=5e+06u
X92 vdd.t137 ldomc_0.otaldom_0.pcsm_0.vbp1 ldomc_0.otaldom_0.pcsm_0.vbn2 vdd.t136 sky130_fd_pr__pfet_g5v0d10v5 ad=0p pd=0u as=2.32e+12p ps=1.716e+07u w=4e+06u l=1e+06u
X93 out.t56 ldomc_0.otaldom_0.pmosrm_0.out vdd vdd.t36 sky130_fd_pr__pfet_g5v0d10v5 ad=0p pd=0u as=0p ps=0u w=5e+07u l=500000u
X94 a_n13316_2076# a_n12848_5108# vss.t226 sky130_fd_pr__res_xhigh_po_0p69 l=1.3e+07u
X95 bandgapmd_0.otam_1.pcascodeupm_0.vg bandgapmd_0.otam_1.pcascodeupm_0.vg bandgapmd_0.otam_1.pcascodeupm_0.vg vdd.t27 sky130_fd_pr__pfet_g5v0d10v5 ad=0p pd=0u as=0p ps=0u w=2e+06u l=1e+06u
X96 vdd.t234 vdd.t232 vdd.t233 vdd.t36 sky130_fd_pr__pfet_g5v0d10v5 ad=0p pd=0u as=0p ps=0u w=5e+07u l=500000u
X97 vss.t300 ldomc_0.otaldom_0.nmosbn1m_0.vbn1 ldomc_0.otaldom_0.nmosrm_0.outn vss.t299 sky130_fd_pr__nfet_g5v0d10v5 ad=0p pd=0u as=0p ps=0u w=1e+06u l=1e+06u
X98 out.t68 ldomc_0.otaldom_0.pdiffm_0.inp sky130_fd_pr__cap_mim_m3_1 l=5e+06u w=5e+06u
X99 vss.t358 biasldo.t2 biasldo.t3 vss sky130_fd_pr__nfet_g5v0d10v5 ad=0p pd=0u as=0p ps=0u w=5e+06u l=1e+07u
X100 ldomc_0.otaldom_0.nmosrm_0.outn ldomc_0.otaldom_0.pcsm_0.vbn2 ldomc_0.otaldom_0.pmosrm_0.out vss sky130_fd_pr__nfet_g5v0d10v5 ad=0p pd=0u as=0p ps=0u w=2e+06u l=4e+06u
X101 a_n23460_2674# a_n23894_4148# vss sky130_fd_pr__res_high_po w=1.41e+06u l=2.8e+06u
X102 bandgapmd_0.otam_1.nmoslm_0.outp bandgapmd_0.otam_1.nmosbn1m_0.vbn1 vss.t76 vss.t75 sky130_fd_pr__nfet_g5v0d10v5 ad=0p pd=0u as=0p ps=0u w=1e+06u l=1e+06u
X103 out.t55 ldomc_0.otaldom_0.pmosrm_0.out vdd.t86 vdd.t39 sky130_fd_pr__pfet_g5v0d10v5 ad=0p pd=0u as=0p ps=0u w=5e+07u l=500000u
X104 ldomc_0.otaldom_0.pcascodeupm_0.vg ldomc_0.otaldom_0.pmosrm_0.bias1 ldomc_0.otaldom_0.pcascodeupm_0.o1.t4 vdd.t309 sky130_fd_pr__pfet_g5v0d10v5 ad=0p pd=0u as=0p ps=0u w=2e+06u l=4e+06u
X105 ldomc_0.otaldom_0.pcascodeupm_0.o1.t14 ldomc_0.otaldom_0.pcascodeupm_0.vg vdd.t386 vdd.t385 sky130_fd_pr__pfet_g5v0d10v5 ad=0p pd=0u as=0p ps=0u w=2e+06u l=4e+06u
X106 bandgapmd_0.otam_1.pmosrm_0.out vss.t349 sky130_fd_pr__cap_mim_m3_1 l=1e+07u w=1e+07u
X107 ldomc_0.otaldom_0.pcsm_0.vbn2 ldomc_0.otaldom_0.pcsm_0.vbp1 vdd.t135 vdd.t134 sky130_fd_pr__pfet_g5v0d10v5 ad=0p pd=0u as=0p ps=0u w=4e+06u l=1e+06u
X108 ldomc_0.otaldom_0.pcsm_0.diff ldomc_0.otaldom_0.pcsm_0.vbp1 vdd.t133 vdd.t132 sky130_fd_pr__pfet_g5v0d10v5 ad=0p pd=0u as=0p ps=0u w=4e+06u l=1e+06u
X109 vdd.t231 vdd.t229 vdd.t230 vdd.t39 sky130_fd_pr__pfet_g5v0d10v5 ad=0p pd=0u as=0p ps=0u w=5e+07u l=500000u
X110 bandgapmd_0.otam_1.pcascodeupm_0.o2 bandgapmd_0.otam_1.pmosrm_0.bias1 bandgapmd_0.otam_1.pmosrm_0.out vdd.t269 sky130_fd_pr__pfet_g5v0d10v5 ad=0p pd=0u as=5.22e+12p ps=4.122e+07u w=2e+06u l=4e+06u
X111 bandgapmd_0.bg_stupm_0.vs2 vss.t219 sky130_fd_pr__cap_mim_m3_1 l=1e+07u w=1e+07u
X112 vdd vdd.t224 vdd vdd.t225 sky130_fd_pr__pfet_g5v0d10v5 ad=0p pd=0u as=0p ps=0u w=2e+06u l=1e+06u
X113 ldomc_0.otaldom_0.nmosrm_0.outn ldomc_0.otaldom_0.nmosbn1m_0.vbn1 vss.t298 vss.t297 sky130_fd_pr__nfet_g5v0d10v5 ad=0p pd=0u as=0p ps=0u w=1e+06u l=1e+06u
X114 a_n21356_2676# a_n21774_4148# vss sky130_fd_pr__res_high_po w=1.41e+06u l=2.8e+06u
X115 bandgapmd_0.otam_1.pmosrm_0.bias1 bandgapmd_0.otam_1.pmosrm_0.bias1 bandgapmd_0.otam_1.pmosrm_0.bias1 vdd.t268 sky130_fd_pr__pfet_g5v0d10v5 ad=0p pd=0u as=0p ps=0u w=4e+06u l=1e+06u
X116 ldomc_0.otaldom_0.nmosbn1m_0.vbn1 ldomc_0.otaldom_0.pcsm_0.vbn2 ldomc_0.otaldom_0.pcsm_0.vbn2 vss sky130_fd_pr__nfet_g5v0d10v5 ad=0p pd=0u as=1.16e+12p ps=9.16e+06u w=2e+06u l=4e+06u
X117 ldomc_0.otaldom_0.nmosrm_0.outn ldomc_0.otaldom_0.nmosbn1m_0.vbn1 vss.t296 vss.t295 sky130_fd_pr__nfet_g5v0d10v5 ad=0p pd=0u as=0p ps=0u w=1e+06u l=1e+06u
X118 ldomc_0.otaldom_0.nmosrm_0.outn ldomc_0.otaldom_0.nmosbn1m_0.vbn1 vss.t294 vss.t293 sky130_fd_pr__nfet_g5v0d10v5 ad=0p pd=0u as=0p ps=0u w=1e+06u l=1e+06u
X119 vss.t74 bandgapmd_0.otam_1.nmosbn1m_0.vbn1 bandgapmd_0.otam_1.nmoslm_0.outp vss.t73 sky130_fd_pr__nfet_g5v0d10v5 ad=0p pd=0u as=0p ps=0u w=1e+06u l=1e+06u
X120 vss.t72 bandgapmd_0.otam_1.nmosbn1m_0.vbn1 bandgapmd_0.otam_1.nmoslm_0.outp vss.t71 sky130_fd_pr__nfet_g5v0d10v5 ad=0p pd=0u as=0p ps=0u w=1e+06u l=1e+06u
X121 vdd.t26 bandgapmd_0.otam_1.pcascodeupm_0.vg bandgapmd_0.otam_1.pcascodeupm_0.o1.t6 vdd.t25 sky130_fd_pr__pfet_g5v0d10v5 ad=0p pd=0u as=0p ps=0u w=2e+06u l=4e+06u
X122 vdd.t131 ldomc_0.otaldom_0.pcsm_0.vbp1 ldomc_0.otaldom_0.pcsm_0.diff vdd.t130 sky130_fd_pr__pfet_g5v0d10v5 ad=0p pd=0u as=0p ps=0u w=4e+06u l=1e+06u
X123 bandgapmd_0.otam_1.pcascodeupm_0.vg bandgapmd_0.otam_1.pcascodeupm_0.vg bandgapmd_0.otam_1.pcascodeupm_0.vg vdd.t24 sky130_fd_pr__pfet_g5v0d10v5 ad=0p pd=0u as=0p ps=0u w=2e+06u l=1e+06u
X124 ldomc_0.otaldom_0.pcascodeupm_0.o2.t15 ldomc_0.otaldom_0.pcascodeupm_0.vg vdd.t384 vdd.t383 sky130_fd_pr__pfet_g5v0d10v5 ad=0p pd=0u as=0p ps=0u w=2e+06u l=4e+06u
X125 ldomc_0.otaldom_0.nmoslm_0.outp ldomc_0.otaldom_0.pcsm_0.vbn2 ldomc_0.otaldom_0.pcascodeupm_0.vg vss sky130_fd_pr__nfet_g5v0d10v5 ad=0p pd=0u as=0p ps=0u w=2e+06u l=4e+06u
X126 vss.t70 bandgapmd_0.otam_1.nmosbn1m_0.vbn1 bandgapmd_0.otam_1.nmoslm_0.outp vss.t69 sky130_fd_pr__nfet_g5v0d10v5 ad=0p pd=0u as=0p ps=0u w=1e+06u l=1e+06u
X127 bandgapmd_0.otam_1.pcascodeupm_0.vg bandgapmd_0.otam_1.pcascodeupm_0.vg bandgapmd_0.otam_1.pcascodeupm_0.vg vdd.t23 sky130_fd_pr__pfet_g5v0d10v5 ad=0p pd=0u as=0p ps=0u w=2e+06u l=1e+06u
X128 vdd.t129 ldomc_0.otaldom_0.pcsm_0.vbp1 ldomc_0.otaldom_0.pcsm_0.vbp1 vdd.t128 sky130_fd_pr__pfet_g5v0d10v5 ad=0p pd=0u as=0p ps=0u w=4e+06u l=1e+06u
X129 ldomc_0.otaldom_0.pmosrm_0.out ldomc_0.otaldom_0.pmosrm_0.out ldomc_0.otaldom_0.pmosrm_0.out vss sky130_fd_pr__nfet_g5v0d10v5 ad=0p pd=0u as=0p ps=0u w=2e+06u l=1e+06u
X130 a_8524_8048# a_8164_10248# vss sky130_fd_pr__res_xhigh_po w=350000u l=8.5e+06u
X131 vss.t292 ldomc_0.otaldom_0.nmosbn1m_0.vbn1 ldomc_0.otaldom_0.nmoslm_0.outp vss.t291 sky130_fd_pr__nfet_g5v0d10v5 ad=0p pd=0u as=0p ps=0u w=1e+06u l=1e+06u
X132 bandgapmd_0.otam_1.nmosbn1m_0.vbn1 bandgapmd_0.otam_1.pcsm_0.vbn2 bandgapmd_0.otam_1.pcsm_0.vbn2 vss sky130_fd_pr__nfet_g5v0d10v5 ad=4.64e+12p pd=3.722e+07u as=1.16e+12p ps=9.16e+06u w=2e+06u l=4e+06u
X133 bandgapmd_0.bg_stupm_0.vs2 vss.t218 sky130_fd_pr__cap_mim_m3_1 l=1e+07u w=1e+07u
X134 a_n20290_2674# a_n19654_4148# vss sky130_fd_pr__res_high_po w=1.41e+06u l=2.8e+06u
X135 vss.t290 ldomc_0.otaldom_0.nmosbn1m_0.vbn1 ldomc_0.otaldom_0.nmoslm_0.outp vss.t289 sky130_fd_pr__nfet_g5v0d10v5 ad=0p pd=0u as=0p ps=0u w=1e+06u l=1e+06u
X136 bandgapmd_0.otam_1.nmosrm_0.outn.t14 bandgapmd_0.otam_1.nmosbn1m_0.vbn1 vss.t68 vss.t67 sky130_fd_pr__nfet_g5v0d10v5 ad=0p pd=0u as=0p ps=0u w=1e+06u l=1e+06u
X137 bandgapmd_0.otam_1.nmosrm_0.outn.t13 bandgapmd_0.otam_1.nmosbn1m_0.vbn1 vss.t66 vss.t65 sky130_fd_pr__nfet_g5v0d10v5 ad=0p pd=0u as=0p ps=0u w=1e+06u l=1e+06u
X138 vdd.t167 bandgapmd_0.otam_1.pcsm_0.vbp1 bandgapmd_0.otam_1.pcsm_0.diff vdd.t166 sky130_fd_pr__pfet_g5v0d10v5 ad=0p pd=0u as=0p ps=0u w=4e+06u l=1e+06u
X139 ldomc_0.otaldom_0.pmosrm_0.out ldomc_0.otaldom_0.pmosrm_0.out ldomc_0.otaldom_0.pmosrm_0.out vss sky130_fd_pr__nfet_g5v0d10v5 ad=0p pd=0u as=0p ps=0u w=2e+06u l=1e+06u
X140 bandgapmd_0.otam_1.nmosrm_0.outn.t12 bandgapmd_0.otam_1.nmosbn1m_0.vbn1 vss.t64 vss.t63 sky130_fd_pr__nfet_g5v0d10v5 ad=0p pd=0u as=0p ps=0u w=1e+06u l=1e+06u
X141 vss vss.t178 vss vss.t179 sky130_fd_pr__nfet_g5v0d10v5 ad=0p pd=0u as=0p ps=0u w=1e+06u l=1e+06u
X142 ldomc_0.otaldom_0.nmoslm_0.outp ldomc_0.otaldom_0.nmosbn1m_0.vbn1 vss.t288 vss.t287 sky130_fd_pr__nfet_g5v0d10v5 ad=0p pd=0u as=0p ps=0u w=1e+06u l=1e+06u
X143 bandgapmd_0.otam_1.pcsm_0.vbp1 bandgapmd_0.otam_1.pmosrm_0.bias1 bandgapmd_0.otam_1.pmosrm_0.bias1 vdd.t267 sky130_fd_pr__pfet_g5v0d10v5 ad=0p pd=0u as=0p ps=0u w=4e+06u l=1e+06u
X144 ldomc_0.otaldom_0.pcascodeupm_0.o2.t7 ldomc_0.otaldom_0.pmosrm_0.bias1 ldomc_0.otaldom_0.pmosrm_0.out vdd.t308 sky130_fd_pr__pfet_g5v0d10v5 ad=0p pd=0u as=5.22e+12p ps=4.122e+07u w=2e+06u l=4e+06u
X145 vss vss.t172 bandgapmd_0.bg_trimmup_0.bot sky130_fd_pr__pnp_05v5_W0p68L0p68 NE=1
X146 ldomc_0.otaldom_0.nmoslm_0.outp ldomc_0.otaldom_0.nmosbn1m_0.vbn1 vss.t286 vss.t285 sky130_fd_pr__nfet_g5v0d10v5 ad=0p pd=0u as=0p ps=0u w=1e+06u l=1e+06u
X147 ldomc_0.otaldom_0.nmoslm_0.outp ldomc_0.otaldom_0.nmosbn1m_0.vbn1 vss.t284 vss.t283 sky130_fd_pr__nfet_g5v0d10v5 ad=0p pd=0u as=0p ps=0u w=1e+06u l=1e+06u
X148 a_n18160_2676# a_n17534_4148# vss sky130_fd_pr__res_high_po w=1.41e+06u l=2.8e+06u
X149 vss vss.t176 bandgapmd_0.otam_1.pdiffm_0.inn sky130_fd_pr__pnp_05v5_W0p68L0p68 NE=1
X150 vss.t62 bandgapmd_0.otam_1.nmosbn1m_0.vbn1 bandgapmd_0.otam_1.nmosrm_0.outn.t11 vss.t61 sky130_fd_pr__nfet_g5v0d10v5 ad=0p pd=0u as=0p ps=0u w=1e+06u l=1e+06u
X151 bandgapmd_0.otam_1.pcascodeupm_0.vg bandgapmd_0.otam_1.pcascodeupm_0.vg bandgapmd_0.otam_1.pcascodeupm_0.vg vdd.t22 sky130_fd_pr__pfet_g5v0d10v5 ad=0p pd=0u as=0p ps=0u w=2e+06u l=1e+06u
X152 bandgapmd_0.otam_1.pmosrm_0.out bandgapmd_0.otam_1.pmosrm_0.bias1 bandgapmd_0.otam_1.pcascodeupm_0.o2 vdd.t266 sky130_fd_pr__pfet_g5v0d10v5 ad=0p pd=0u as=0p ps=0u w=2e+06u l=4e+06u
X153 bandgapmd_0.otam_1.pmosrm_0.bias1 bandgapmd_0.otam_1.pmosrm_0.bias1 bandgapmd_0.otam_1.pmosrm_0.bias1 vdd.t265 sky130_fd_pr__pfet_g5v0d10v5 ad=0p pd=0u as=0p ps=0u w=4e+06u l=1e+06u
X154 ldomc_0.otaldom_0.nmoslm_0.outp ldomc_0.otaldom_0.nmosbn1m_0.vbn1 vss.t282 vss.t281 sky130_fd_pr__nfet_g5v0d10v5 ad=0p pd=0u as=0p ps=0u w=1e+06u l=1e+06u
X155 a_n11444_2076# a_n11678_5108# vss.t11 sky130_fd_pr__res_xhigh_po_0p69 l=1.3e+07u
X156 bandgapmd_0.bg_trimmup_0.bot trim[0].t0 a_n24956_4148# vss.t225 sky130_fd_pr__nfet_g5v0d10v5 ad=9.28e+12p pd=7.328e+07u as=5.8e+11p ps=4.58e+06u w=2e+06u l=500000u
X157 vss.t60 bandgapmd_0.otam_1.nmosbn1m_0.vbn1 bandgapmd_0.otam_1.nmosrm_0.outn.t10 vss.t59 sky130_fd_pr__nfet_g5v0d10v5 ad=0p pd=0u as=0p ps=0u w=1e+06u l=1e+06u
X158 ldomc_0.otaldom_0.pmosrm_0.out out.t19 sky130_fd_pr__cap_mim_m3_1 l=5e+06u w=5e+06u
X159 a_8404_8048# a_9244_10248# vss sky130_fd_pr__res_xhigh_po w=350000u l=8.5e+06u
X160 ldomc_0.otaldom_0.pmosrm_0.bias1 ldomc_0.otaldom_0.pmosrm_0.bias1 ldomc_0.otaldom_0.pcsm_0.vbp1 vdd.t307 sky130_fd_pr__pfet_g5v0d10v5 ad=0p pd=0u as=0p ps=0u w=4e+06u l=1e+06u
X161 vdd.t21 bandgapmd_0.otam_1.pcascodeupm_0.vg bandgapmd_0.otam_1.pcascodeupm_0.o2 vdd.t20 sky130_fd_pr__pfet_g5v0d10v5 ad=0p pd=0u as=0p ps=0u w=2e+06u l=4e+06u
X162 bandgapmd_0.otam_1.pmosrm_0.out vss.t348 sky130_fd_pr__cap_mim_m3_1 l=1e+07u w=1e+07u
X163 vss.t58 bandgapmd_0.otam_1.nmosbn1m_0.vbn1 bandgapmd_0.otam_1.nmosbn1m_0.vbn1 vss.t57 sky130_fd_pr__nfet_g5v0d10v5 ad=0p pd=0u as=0p ps=0u w=1e+06u l=1e+06u
X164 a_n14486_2076# a_n14720_5108# vss.t330 sky130_fd_pr__res_xhigh_po_0p69 l=1.3e+07u
X165 vss.t327 vss.t328 vss.t326 sky130_fd_pr__res_xhigh_po_0p69 l=1.3e+07u
X166 vdd.t101 bandgapmd_0.bg_stupm_0.vs2.t0 bandgapmd_0.bg_stupm_0.vs2 vdd.t100 sky130_fd_pr__pfet_g5v0d10v5 ad=0p pd=0u as=5.8e+11p ps=5.16e+06u w=1e+06u l=1e+06u
X167 vdd.t382 ldomc_0.otaldom_0.pcascodeupm_0.vg ldomc_0.otaldom_0.pcascodeupm_0.o1.t13 vdd.t381 sky130_fd_pr__pfet_g5v0d10v5 ad=0p pd=0u as=0p ps=0u w=2e+06u l=4e+06u
X168 bandgapmd_0.otam_1.pcascodeupm_0.vg bandgapmd_0.otam_1.pmosrm_0.bias1 bandgapmd_0.otam_1.pcascodeupm_0.o1.t13 vdd.t264 sky130_fd_pr__pfet_g5v0d10v5 ad=0p pd=0u as=0p ps=0u w=2e+06u l=4e+06u
X169 bandgapmd_0.otam_1.nmosrm_0.outn.t22 bandgapmd_0.otam_1.pcsm_0.vbn2 bandgapmd_0.otam_1.pmosrm_0.out vss sky130_fd_pr__nfet_g5v0d10v5 ad=0p pd=0u as=0p ps=0u w=2e+06u l=4e+06u
X170 a_n7846_4436# bandgapmd_0.bg_pmosm_0.vbg.t5 vss.t315 vss.t314 sky130_fd_pr__nfet_g5v0d10v5 ad=2.9e+11p pd=2.58e+06u as=0p ps=0u w=1e+06u l=1e+06u
X171 ldomc_0.otaldom_0.nmosrm_0.outn bandgapmd_0.bg_pmosm_0.vbg.t6 ldomc_0.otaldom_0.pcsm_0.diff vdd.t285 sky130_fd_pr__pfet_g5v0d10v5 ad=0p pd=0u as=0p ps=0u w=4e+06u l=1e+06u
X172 bandgapmd_0.otam_1.pmosrm_0.out vss.t347 sky130_fd_pr__cap_mim_m3_1 l=1e+07u w=1e+07u
X173 bandgapmd_0.otam_1.nmoslm_0.outp bandgapmd_0.otam_1.pdiffm_0.inp.t3 bandgapmd_0.otam_1.pcsm_0.diff vdd.t345 sky130_fd_pr__pfet_g5v0d10v5 ad=0p pd=0u as=0p ps=0u w=4e+06u l=1e+06u
X174 ldomc_0.otaldom_0.pcascodeupm_0.vg ldomc_0.otaldom_0.pcascodeupm_0.vg ldomc_0.otaldom_0.pcascodeupm_0.vg vss sky130_fd_pr__nfet_g5v0d10v5 ad=0p pd=0u as=0p ps=0u w=2e+06u l=1e+06u
X175 vdd.t342 bandgapmd_0.otam_1.pmosrm_0.out bandgapmd_0.bg_pmosm_0.comp.t2 vdd.t200 sky130_fd_pr__pfet_g5v0d10v5 ad=0p pd=0u as=0p ps=0u w=4e+06u l=1e+06u
X176 ldomc_0.otaldom_0.pcascodeupm_0.o1.t3 ldomc_0.otaldom_0.pmosrm_0.bias1 ldomc_0.otaldom_0.pcascodeupm_0.vg vdd.t306 sky130_fd_pr__pfet_g5v0d10v5 ad=0p pd=0u as=0p ps=0u w=2e+06u l=4e+06u
X177 a_n13550_2076# a_n13784_5108# vss.t212 sky130_fd_pr__res_xhigh_po_0p69 l=1.3e+07u
X178 vdd.t380 ldomc_0.otaldom_0.pcascodeupm_0.vg ldomc_0.otaldom_0.pcascodeupm_0.o1.t12 vdd.t379 sky130_fd_pr__pfet_g5v0d10v5 ad=0p pd=0u as=0p ps=0u w=2e+06u l=4e+06u
X179 ldomc_0.otaldom_0.pcsm_0.diff ldomc_0.otaldom_0.pcsm_0.vbp1 vdd.t127 vdd.t126 sky130_fd_pr__pfet_g5v0d10v5 ad=0p pd=0u as=0p ps=0u w=4e+06u l=1e+06u
X180 vdd vdd.t219 vdd vdd.t220 sky130_fd_pr__pfet_g5v0d10v5 ad=0p pd=0u as=0p ps=0u w=2e+06u l=1e+06u
X181 vss.t280 ldomc_0.otaldom_0.nmosbn1m_0.vbn1 ldomc_0.otaldom_0.nmosbn1m_0.vbn1 vss.t279 sky130_fd_pr__nfet_g5v0d10v5 ad=0p pd=0u as=0p ps=0u w=1e+06u l=1e+06u
X182 vss vss.t170 bandgapmd_0.bg_trimmup_0.bot sky130_fd_pr__pnp_05v5_W0p68L0p68 NE=1
X183 bandgapmd_0.otam_1.pcsm_0.diff bandgapmd_0.otam_1.pcsm_0.diff bandgapmd_0.otam_1.pcsm_0.diff vdd.t246 sky130_fd_pr__pfet_g5v0d10v5 ad=0p pd=0u as=0p ps=0u w=4e+06u l=1e+06u
X184 vdd.t165 bandgapmd_0.otam_1.pcsm_0.vbp1 bandgapmd_0.otam_1.pcsm_0.diff vdd.t164 sky130_fd_pr__pfet_g5v0d10v5 ad=0p pd=0u as=0p ps=0u w=4e+06u l=1e+06u
X185 ldomc_0.otaldom_0.pcsm_0.diff ldomc_0.otaldom_0.pdiffm_0.inp ldomc_0.otaldom_0.nmoslm_0.outp vdd.t333 sky130_fd_pr__pfet_g5v0d10v5 ad=0p pd=0u as=0p ps=0u w=4e+06u l=1e+06u
X186 ldomc_0.otaldom_0.pmosrm_0.bias1 ldomc_0.otaldom_0.pmosrm_0.bias1 ldomc_0.otaldom_0.pmosrm_0.bias1 vdd.t305 sky130_fd_pr__pfet_g5v0d10v5 ad=0p pd=0u as=0p ps=0u w=4e+06u l=1e+06u
X187 bandgapmd_0.otam_1.nmoslm_0.outp bandgapmd_0.otam_1.pcsm_0.vbn2 bandgapmd_0.otam_1.pcascodeupm_0.vg vss sky130_fd_pr__nfet_g5v0d10v5 ad=0p pd=0u as=0p ps=0u w=2e+06u l=4e+06u
X188 bandgapmd_0.otam_1.pmosrm_0.out bandgapmd_0.otam_1.pmosrm_0.bias1 bandgapmd_0.otam_1.pcascodeupm_0.o2 vdd.t263 sky130_fd_pr__pfet_g5v0d10v5 ad=0p pd=0u as=0p ps=0u w=2e+06u l=4e+06u
X189 bandgapmd_0.bg_pmosm_0.vbg.t7 vss.t316 sky130_fd_pr__cap_mim_m3_1 l=5e+06u w=5e+06u
X190 bandgapmd_0.otam_1.nmosbn1m_0.vbn1 bandgapmd_0.otam_1.nmosbn1m_0.vbn1 bandgapmd_0.otam_1.nmosbn1m_0.vbn1 vss sky130_fd_pr__nfet_g5v0d10v5 ad=0p pd=0u as=0p ps=0u w=2e+06u l=1e+06u
X191 vss.t5 biasbgr.t2 biasbgr.t3 vss sky130_fd_pr__nfet_g5v0d10v5 ad=0p pd=0u as=0p ps=0u w=5e+06u l=1e+07u
X192 bandgapmd_0.otam_1.pmosrm_0.out vss.t346 sky130_fd_pr__cap_mim_m3_1 l=1e+07u w=1e+07u
X193 a_n24544_2674# trim[1].t0 bandgapmd_0.bg_trimmup_0.bot vss.t222 sky130_fd_pr__nfet_g5v0d10v5 ad=5.8e+11p pd=4.58e+06u as=0p ps=0u w=2e+06u l=500000u
X194 vdd.t378 ldomc_0.otaldom_0.pcascodeupm_0.vg ldomc_0.otaldom_0.pcascodeupm_0.o2.t14 vdd.t377 sky130_fd_pr__pfet_g5v0d10v5 ad=0p pd=0u as=0p ps=0u w=2e+06u l=4e+06u
X195 ldomc_0.otaldom_0.nmoslm_0.outp ldomc_0.otaldom_0.pdiffm_0.inp ldomc_0.otaldom_0.pcsm_0.diff vdd.t332 sky130_fd_pr__pfet_g5v0d10v5 ad=0p pd=0u as=0p ps=0u w=4e+06u l=1e+06u
X196 bandgapmd_0.otam_1.nmoslm_0.outp bandgapmd_0.otam_1.pdiffm_0.inp.t4 bandgapmd_0.otam_1.pcsm_0.diff vdd.t346 sky130_fd_pr__pfet_g5v0d10v5 ad=0p pd=0u as=0p ps=0u w=4e+06u l=1e+06u
X197 out.t69 ldomc_0.otaldom_0.pdiffm_0.inp sky130_fd_pr__cap_mim_m3_1 l=5e+06u w=5e+06u
X198 bandgapmd_0.otam_1.pmosrm_0.out vss.t345 sky130_fd_pr__cap_mim_m3_1 l=1e+07u w=1e+07u
X199 ldomc_0.otaldom_0.nmoslm_0.outp ldomc_0.otaldom_0.pdiffm_0.inp ldomc_0.otaldom_0.pcsm_0.diff vdd.t331 sky130_fd_pr__pfet_g5v0d10v5 ad=0p pd=0u as=0p ps=0u w=4e+06u l=1e+06u
X200 bandgapmd_0.otam_1.pcsm_0.vbn2 bandgapmd_0.otam_1.pcsm_0.vbn2 bandgapmd_0.otam_1.nmosbn1m_0.vbn1 vss sky130_fd_pr__nfet_g5v0d10v5 ad=0p pd=0u as=0p ps=0u w=2e+06u l=4e+06u
X201 a_n19218_2674# a_n19654_4148# vss sky130_fd_pr__res_high_po w=1.41e+06u l=2.8e+06u
X202 vdd.t19 bandgapmd_0.otam_1.pcascodeupm_0.vg bandgapmd_0.otam_1.pcascodeupm_0.o1.t5 vdd.t18 sky130_fd_pr__pfet_g5v0d10v5 ad=0p pd=0u as=0p ps=0u w=2e+06u l=4e+06u
X203 a_n20290_2674# a_n20714_4148# vss sky130_fd_pr__res_high_po w=1.41e+06u l=2.8e+06u